MotorDriver
*SPICE Netlist generated by Advanced Sim server on 2019-02-16 3:18:54 PM

*Schematic Netlist:


*Selected Circuit Analyses:
.TRAN 2E-8 5E-6 0 2E-8
.OP

.END
